data_test

_audit_creation_method generated by ABACUS

_cell_length_a 14.817
_cell_length_b 14.817
_cell_length_c 14.817
_cell_angle_alpha 90
_cell_angle_beta 90
_cell_angle_gamma 90

_symmetry_space_group_name_H-M 
_symmetry_Int_Tables_number 

loop_
_atom_site_label
_atom_site_fract_x
_atom_site_fract_y
_atom_site_fract_z
H 0.569758 0.6702 0.29983
H 0.491826 0.736268 0.271857
O 0.518329 0.703007 0.31994
