data_test

_audit_creation_method generated by ABACUS

_cell_length_a 5.29177
_cell_length_b 5.29177
_cell_length_c 5.29177
_cell_angle_alpha 90
_cell_angle_beta 90
_cell_angle_gamma 90

_symmetry_space_group_name_H-M 
_symmetry_Int_Tables_number 

loop_
_atom_site_label
_atom_site_fract_x
_atom_site_fract_y
_atom_site_fract_z
C 0.981275 0.861285 0.838442
H 0.0235572 0.758026 0.663513
H 0.780757 0.889446 0.837363
H 0.0640916 0.0434389 0.840996
H 0.0393212 0.756531 0.00960921
